Version 4
SHEET 1 1760 680
WIRE 352 -384 -208 -384
WIRE 752 -384 352 -384
WIRE 1584 -384 1248 -384
WIRE 352 -208 352 -384
WIRE 752 -208 752 -384
WIRE -208 -192 -208 -384
WIRE 1584 -192 1584 -384
WIRE 688 -160 640 -160
WIRE 1248 -128 1248 -384
WIRE 1408 -112 1296 -112
WIRE 352 -80 352 -128
WIRE 640 -80 640 -160
WIRE 640 -80 352 -80
WIRE 1376 -80 1296 -80
WIRE 752 -64 752 -112
WIRE 1040 -64 752 -64
WIRE 1200 -64 1120 -64
WIRE 1200 -48 1200 -64
WIRE 1360 -48 1296 -48
WIRE 352 -32 352 -80
WIRE 752 -32 752 -64
WIRE 1376 -32 1376 -80
WIRE 1408 -32 1408 -112
WIRE 1408 -32 1376 -32
WIRE 1360 0 1360 -48
WIRE 1408 0 1408 -32
WIRE 1408 0 1360 0
WIRE 128 16 16 16
WIRE 288 16 208 16
WIRE 640 16 640 -80
WIRE 688 16 640 16
WIRE 1248 48 1248 -32
WIRE 16 80 16 16
WIRE -208 208 -208 -112
WIRE 16 208 16 160
WIRE 16 208 -208 208
WIRE 192 208 16 208
WIRE 352 208 352 64
WIRE 352 208 192 208
WIRE 752 208 752 64
WIRE 752 208 352 208
WIRE 1248 208 1248 128
WIRE 1408 208 1408 0
WIRE 1408 208 1248 208
WIRE 1584 208 1584 -112
WIRE 1584 208 1408 208
WIRE 192 240 192 208
WIRE 1408 240 1408 208
FLAG 192 240 0
FLAG 1408 240 0
SYMBOL voltage 16 64 R0
WINDOW 123 0 0 Left 0
WINDOW 39 0 0 Left 0
SYMATTR InstName V1
SYMATTR Value PULSE(0 5 0 10n 10n 10u 20u 1000)
SYMBOL res 224 0 R90
WINDOW 0 0 56 VBottom 2
WINDOW 3 32 56 VTop 2
SYMATTR InstName R1
SYMATTR Value 10K
SYMATTR SpiceLine tol=1 pwr=0.1
SYMBOL npn 288 -32 R0
SYMATTR InstName Q1
SYMATTR Value 2N2222
SYMBOL voltage -208 -208 R0
WINDOW 123 0 0 Left 0
WINDOW 39 0 0 Left 0
SYMATTR InstName V2
SYMATTR Value 60
SYMBOL res 336 -224 R0
SYMATTR InstName R2
SYMATTR Value 100
SYMBOL npn 688 -208 R0
SYMATTR InstName Q2
SYMATTR Value 2SCR542P
SYMBOL pnp 688 64 M180
WINDOW 3 83 69 Left 2
SYMATTR Value 2SAR542P
SYMATTR InstName Q3
SYMBOL res 1136 -80 R90
WINDOW 0 0 56 VBottom 2
WINDOW 3 32 56 VTop 2
SYMATTR InstName R3
SYMATTR Value 3
SYMBOL voltage 1584 -208 R0
WINDOW 123 0 0 Left 0
WINDOW 39 0 0 Left 0
SYMATTR InstName V3
SYMATTR Value 100
SYMBOL res 1232 32 R0
SYMATTR InstName R4
SYMATTR Value 53.085
SYMBOL mosfetSCT3022AL 1200 -128 R0
WINDOW 3 129 100 Right 2
SYMATTR Value SCT3022AL_T_LT
SYMATTR InstName U1
TEXT -216 480 Left 2 !.include C:\\Users\\lenovo\\OneDrive\\Documents\\Arduino\\sct3022al_t.lib
TEXT -208 536 Left 2 !.tran 1000u
TEXT -216 424 Left 2 !.lib C:\\Users\\lenovo\\OneDrive\\Documents\\Arduino\\SCT3022AL_t_rohm\\sct3022al_t_lt.lib
